*node, nset=nall
1, 0, 0, 0
2, 1, 0, 0
3, 0.5, 0.8, 0
4, 0.5, 0.3, 0.8
*nset, nset=N4
4, 
*nset, nset=N3
3, 
*nset, nset=N2
2, 
*nset, nset=N1
1, 
*solid section, material=steel, elset=C3D4
*element, elset=C3D4,type=C3D4
1, 1, 3, 2, 4, 
*material, name=steel
*elastic
209000.0, 0.3
*density
7.85e-09
*step
*frequency
12
*nodefile
u
*elfile, output=3D
s, e
*endstep
