*node, nset=nall
1, 0, 0, 0
2, 1, 0, 0
3, 0.5, 0.8, 0
4, 0, 0, 1
5, 1, 0, 1
6, 0.5, 0.8, 1
*nset, nset=N6
6, 
*nset, nset=N5
5, 
*nset, nset=N3
3, 
*nset, nset=N2
2, 
*nset, nset=N1
1, 
*solid section, material=steel, elset=C3D6
*element, elset=C3D6,type=C3D6
1, 1, 3, 2, 4, 6, 5, 
*material, name=steel
*elastic
209000.0, 0.3
*density
7.85e-09
*step
*frequency
12
*nodefile
u
*elfile, output=3D
s, e
*endstep
