*node, nset=nall
1, 0, 0, 0
2, 1, 0, 0
3, 0.5, 0.8, 0
4, 0.5, 0.3, 0.8
5, 0.5, 0, 0
6, 0.75, 0.4, 0
7, 0.25, 0.4, 0
8, 0.25, 0.15, 0.4
9, 0.75, 0.15, 0.4
10, 0.5, 0.55, 0.4
*nset, nset=N7
7, 
*nset, nset=N6
6, 
*nset, nset=N5
5, 
*nset, nset=N4
4, 
*nset, nset=N3
3, 
*nset, nset=N2
2, 
*nset, nset=N1
1, 
*nset, nset=N8
8, 
*nset, nset=N9
9, 
*nset, nset=N10
10, 
*solid section, material=steel, elset=C3D10
*element, elset=C3D10,type=C3D10
1, 1, 3, 2, 4, 7, 6, 5, 8, 10, 9, 
*material, name=steel
*elastic
209000.0, 0.3
*density
7.85e-09
*step
*frequency
12
*nodefile
u
*elfile, output=3D
s, e
*endstep
