*node, nset=nall
1, 0, 0, 0
2, 1, 0, 0
3, 0.5, 0.8, 0
4, 0.5, 0, 0
5, 0.75, 0.4, 0
6, 0.25, 0.4, 0
*nset, nset=N3
3, 
*nset, nset=N4
4, 
*nset, nset=N5
5, 
*nset, nset=N6
6, 
*nset, nset=N2
2, 
*nset, nset=N1
1, 
*shell section, material=steel, elset=S6
1.0
*element, elset=S6,type=S6
1, 1, 3, 2, 6, 5, 4, 
*material, name=steel
*elastic
209000.0, 0.3
*density
7.85e-09
*step
*frequency
12
*nodefile
u
*elfile, output=3D
s, e
*endstep
