*node, nset=nall
1, 0, 0, 0
2, 1, 0, 0
3, 1, 1, 0
4, 0, 1, 0
*nset, nset=N4
4, 
*nset, nset=N3
3, 
*nset, nset=N2
2, 
*nset, nset=N1
1, 
*shell section, material=steel, elset=S4R
1.0
*element, elset=S4R,type=S4R
1, 1, 4, 3, 2, 
*material, name=steel
*elastic
209000.0, 0.3
*density
7.85e-09
*step
*frequency
12
*nodefile
u
*elfile, output=3D
s, e
*endstep
