*node, nset=nall
1, 0.7775, -1.34667, 0
2, 0.7685, -1.33108, 0
3, 0.709385, -1.36521, 0
4, 0.709385, -1.50173, 0
5, 0.591154, -1.56999, 0
6, 0.472923, -1.50173, 0
7, 0.354692, -1.56999, 0
8, 0.236462, -1.50173, 0
9, 0.118231, -1.56999, 0
10, 1.60046e-16, -1.50173, 0
11, 1.70762e-16, -1.5504, 0
12, 1.56831e-16, -1.6204, 0
13, 1.65404e-16, -1.637, 0
14, 1.56831e-16, -1.707, 0
15, 0, -1.7425, 0
16, 0.831988, -1.53105, 0
17, 0.811988, -1.4964, 0
18, 0.850959, -1.4739, 0
19, 0.8425, -1.45925, 0
20, 0.109998, -1.6287, 0
** ... 3091 like lines cut
*shell section, material=steel, elset=S3
1.0
*element, elset=S3,type=S3
564, 170, 10, 151, 
565, 220, 1236, 221, 
566, 216, 1256, 217, 
567, 524, 525, 1259, 
568, 269, 1264, 270, 
569, 105, 106, 1272, 
570, 281, 1273, 282, 
571, 31, 32, 1298, 
572, 247, 1303, 248, 
573, 173, 1306, 174, 
574, 314, 1318, 315, 
575, 240, 1321, 241, 
576, 158, 159, 1334, 
577, 191, 1349, 192, 
578, 262, 1353, 263, 
579, 160, 161, 1355, 
580, 72, 73, 1364, 
581, 295, 1366, 296, 
582, 291, 1367, 292, 
583, 426, 427, 1368, 
** ... 5649 like lines cut

*elset, elset=COOLINGF1
3342, 2275, 6155, 1942, 2623, 1003, 1608, 
2397, 2545, 1902, 4022, 1020, 789, 2847, 3424, 
4019, 1397, 3514, 690, 2499, 3136, 1541, 5922, 
650, 2022, 2714, 2630, 1944, 2273, 1937, 4181, 
1036, 3146, 1290, 5179, 3378, 3217, 3215, 1463, 
5378, 888, 2865, 1428, 3074, 799, 2539, 782, 
2801, 742, 1029, 3208, 1476, 4700, 1431, 5093, 
970, 592, 1529, 4906, 649, 661, 2147, 613, 
1887, 705, 4160, 1305, 3720, 1331, 1906, 2817, 
682, 6205, 1053, 4303, 1111, 2278, 633, 3028, 
4105, 1862, 5154, 2255, 1783, 1219, 4450, 1780, 
2205, 2658, 4566, 2522, 1578, 793, 2438, 869, 
2693, 2210, 756, 584, 3131, 1191, 2953, 5289, 
5145, 1854, 4102, 3014, 632, 2283, 1110, 4288, 
1057, 681, 2819, 6143, 5944, 3127, 583, 1663, 
612, 748, 2922, 688, 811, 4934, 5711, 1367, 
4659, 5618, 2536, 5126, 2168, 1041, 624, 1599, 
4579, 1549, 5696, 4617, 1473, 640, 1033, 2080, 
5085, 2549, 2409, 1610, 2983, 3569, 1316, 4489, 
898, 762, 1947, 747, 4954, 1402, 3638, 2979, 
** ... 12 like lines cut
*elset, elset=COOLINGF2
6158, 6186, 6114, 6208, 6218, 6210, 
*elset, elset=COOLINGF3
1149, 3335, 3748, 3007, 4808, 2416, 566, 
1984, 3550, 1158, 565, 1076, 1177, 4152, 930, 
5481, 4072, 3581, 1926, 5952, 1704, 2893, 977, 
590, 2493, 1339, 4443, 1223, 3847, 1634, 575, 
2600, 1280, 1885, 678, 4377, 1159, 572, 1779, 
4259, 4361, 2705, 1319, 3876, 783, 596, 2059, 
822, 4088, 1064, 771, 1710, 578, 3771, 1635, 
3085, 3086, 4388, 880, 568, 2056, 588, 1406, 
3033, 3029, 1117, 963, 3222, 607, 2305, 1973, 
570, 2249, 1456, 5319, 4242, 2531, 857, 5281, 
4352, 1077, 582, 2185, 4439, 1335, 581, 1373, 
5509, 946, 5006, 2833, 1645, 5553, 1216, 4870, 
1901, 2685, 685, 2701, 901, 1113, 4768, 637, 
1186, 574, 1121, 595, 3788, 749, 1358, 2899, 
642, 1981, 1464, 3641, 774, 5236, 932, 5968, 
3571, 1338, 2909, 597, 3574, 1938, 3649, 3171, 
5192, 2363, 2381, 6141, 5740, 3364, 589, 
*elset, elset=INF1
1653, 931, 2518, 659, 571, 1554, 3724, 
3725, 4400, 611, 3606, 940, 810, 4876, 656, 
1931, 4211, 608, 2654, 773, 975, 4654, 919, 
966, 5258, 905, 3040, 2829, 1620, 593, 1545, 
697, 5461, 1266, 5823, 1800, 673, 4690, 798, 
2903, 2806, 686, 3795, 594, 1588, 580, 937, 
884, 2510, 3499, 795, 3975, 797, 1007, 4045, 
635, 2581, 5013, 1894, 4360, 5159, 1503, 674, 
3080, 872, 5493, 922, 4238, 664, 3409, 2862, 
1370, 625, 4738, 658, 2071, 1192, 2091, 569, 
957, 1759, 4525, 896, 3815, 2434, 885, 2483, 
3740, 871, 4314, 1664, 959, 5886, 2013, 1132, 
2111, 657, 5108, 2327, 4723, 2755, 3601, 677, 
4334, 917, 4268, 670, 3447, 2727, 4381, 2265, 
4919, 665, 2098, 1163, 2040, 6022, 958, 1731, 
4431, 882, 3803, 2455, 1099, 4041, 684, 2946, 
1387, 2663, 666, 576, 2696, 579, 1130, 4925, 
2279, 4542, 2736, 3538, 675, 4298, 
*elset, elset=INF2
564, 
*elset, elset=INF3
3160, 1652, 4284, 1013, 883, 715, 886, 
737, 
*surface, type=element, name=sCOOLING
COOLINGF1, S1
COOLINGF2, S2
COOLINGF3, S3
*surface, type=element, name=sIN
INF1, S1
INF2, S2
INF3, S3

*material, name=steel
*elastic
209000.0, 0.3
*density
7.85e-09
*step
*frequency
12
*nodefile
u
*elfile, output=3D
s, e
*endstep
