*node, nset=nall
1, 0.7775, -1.34667, 1.65786e-14
2, 0.7685, -1.33108, 6.31176e-15
3, 0.7685, -1.33108, 0.06
4, 0.7775, -1.34667, 0.06
5, 0.709385, -1.36521, 9.39197e-15
6, 0.709385, -1.50173, 1.7186e-14
7, 0.591154, -1.56999, 6.59595e-15
8, 0.472923, -1.50173, 1.12043e-14
9, 0.354692, -1.56999, 1.5064e-14
10, 0.236462, -1.50173, 1.70381e-14
11, 0.118231, -1.56999, 3.09035e-15
12, 1.21838e-14, -1.50173, 1.10875e-14
13, 1.77674e-14, -1.5504, 6.50404e-15
14, 9.9408e-15, -1.6204, 1.31151e-14
15, 8.04762e-15, -1.637, 3.71067e-15
16, 1.66732e-14, -1.707, 1.4409e-14
17, 1.18377e-14, -1.7425, 5.28779e-15
18, 0.831988, -1.53105, 7.34651e-15
19, 0.811988, -1.4964, 8.70657e-15
20, 0.850959, -1.4739, 1.67024e-14
** ... 12066 like lines cut
*nset, nset=CANALS
3174, 3175, 3176, 3177, 3178, 3179, 3180, 
3181, 3182, 3183, 3184, 3185, 3186, 3187, 3188, 
3189, 3399, 3400, 3401, 3402, 3403, 3404, 3405, 
3406, 3407, 3408, 3409, 3410, 3411, 3412, 3413, 
3414, 3415, 3416, 3457, 3458, 3459, 3460, 3461, 
3462, 3463, 3464, 3465, 3466, 3467, 3468, 3469, 
3470, 3471, 3472, 3473, 3474, 3475, 3476, 3477, 
3478, 3582, 3583, 3584, 3585, 3586, 3587, 3588, 
3589, 3590, 3591, 3592, 3593, 3594, 3595, 3596, 
3597, 3598, 3599, 3600, 3601, 3602, 3603, 3604, 
3605, 3606, 3607, 3608, 3609, 3610, 3611, 3612, 
3613, 3614, 3615, 3616, 3617, 3618, 3619, 3620, 
3621, 3622, 3623, 3624, 3625, 3626, 3627, 3628, 
3629, 3630, 3631, 3632, 3633, 3634, 3635, 3636, 
3637, 3638, 3639, 3640, 3641, 3642, 3643, 3644, 
3645, 3646, 3647, 3648, 3649, 3650, 3651, 3652, 
3653, 3654, 3655, 3656, 3657, 3658, 3659, 3660, 
3661, 3662, 3663, 3664, 3665, 3666, 3667, 3668, 
3669, 3670, 3671, 3672, 3673, 3674, 3675, 3676, 
3677, 3678, 3679, 3680, 3681, 3682, 3683, 3684, 
** ... 489 like lines cut
*nset, nset=OUT
3073, 3074, 3075, 3076, 3077, 3078, 3079, 
3080, 3081, 3082, 3083, 3084, 3085, 3086, 3087, 
3088, 3089, 3090, 3091, 3092, 3093, 3094, 3095, 
3096, 3097, 3098, 3283, 3284, 3285, 3286, 3287, 
3288, 3289, 3290, 3291, 3292, 3293, 3294, 3295, 
3296, 3297, 3298, 3299, 3300, 3301, 3302, 3303, 
3304, 3305, 3306, 3307, 3308, 3309, 3310, 3311, 
3312, 3313, 3314, 3315, 3316, 3317, 3318, 3319, 
3320, 3321, 3322, 3323, 3324, 3325, 3326, 3327, 
3328, 3329, 3330, 3331, 3332, 3333, 3334, 3335, 
3336, 3337, 3338, 3339, 3340, 3341, 3342, 3343, 
3344, 3345, 3346, 3347, 3348, 3349, 3350, 3351, 
3352, 3353, 3354, 3355, 3356, 3357, 3358, 3359, 
3360, 3361, 3362, 3363, 3364, 3365, 3366, 3367, 
3368, 3369, 3370, 3371, 3372, 3373, 3374, 3375, 
3376, 3377, 3378, 3379, 3380, 3381, 3382, 3383, 
3384, 3385, 3386, 3387, 3388, 3389, 3390, 3391, 
3392, 3393, 3394, 3395, 3396, 3397, 3398, 3417, 
3418, 3419, 3420, 3421, 3422, 3423, 3424, 3425, 
3426, 3427, 3428, 3429, 3430, 3431, 3432, 3433, 
** ... 275 like lines cut
*nset, nset=CYCLSYM2
2055, 2056, 2057, 1, 2, 3, 4, 
20, 21, 41, 42, 61, 62, 78, 79, 
90, 91, 107, 108, 123, 124, 138, 139, 
152, 153, 169, 170, 183, 184, 185, 186, 
509, 510, 511, 625, 626, 627, 691, 692, 
693, 694, 695, 696, 697, 815, 816, 817, 
818, 848, 849, 850, 851, 899, 900, 901, 
902, 903, 904, 905, 906, 907, 908, 909, 
910, 911, 912, 913, 914, 915, 916, 917, 
918, 919, 920, 921, 922, 923, 924, 925, 
926, 927, 928, 929, 930, 931, 932, 933, 
934, 935, 936, 937, 938, 939, 940, 941, 
942, 943, 944, 945, 946, 947, 948, 949, 
1079, 1080, 1081, 1082, 1083, 1084, 1085, 1086, 
1087, 1088, 1089, 1090, 1091, 1092, 1093, 1094, 
1095, 1096, 1097, 1098, 1099, 1100, 1101, 1102, 
1103, 1104, 1105, 1106, 1383, 1384, 1385, 1386, 
1387, 1388, 1389, 1390, 1391, 1392, 1393, 1394, 
1395, 1396, 1397, 1398, 1399, 1400, 1401, 1402, 
1403, 1404, 1405, 1406, 1407, 1408, 1409, 1410, 
1623, 1624, 1625, 1626, 1627, 1628, 1814, 1815, 
1816, 1817, 1854, 1855, 1856, 1857, 1894, 1895, 
1896, 1897, 2035, 2036, 2037, 
*nset, nset=IN
3099, 3100, 3101, 3102, 3103, 3241, 3242, 
3243, 3244, 3245, 3246, 3247, 3248, 3249, 3250, 
3251, 3252, 3253, 3254, 3255, 3256, 3257, 3258, 
3259, 3260, 3261, 3262, 3263, 3264, 3265, 3266, 
3267, 3268, 3269, 3270, 3271, 3272, 3273, 3274, 
3275, 3276, 3277, 3278, 3279, 3280, 3281, 3282, 
3725, 3726, 3727, 3728, 3729, 3730, 3731, 3732, 
3733, 3734, 3735, 3736, 3737, 3738, 3739, 3740, 
3741, 3742, 3743, 3744, 3745, 3746, 3747, 3748, 
3749, 3750, 3751, 3752, 3753, 3754, 3755, 3756, 
3757, 3758, 3759, 3760, 3761, 3762, 3763, 8246, 
8247, 8248, 8249, 8250, 8251, 8252, 8253, 8254, 
8255, 8256, 8257, 8258, 8259, 8260, 8261, 8262, 
8263, 8264, 8265, 8266, 8267, 2051, 2052, 2053, 
2054, 2311, 2312, 2313, 2591, 2592, 2593, 2594, 
2595, 2596, 2597, 2598, 2599, 2600, 2601, 2602, 
2603, 2604, 2605, 2606, 2607, 2608, 2609, 2610, 
4731, 4732, 4733, 4734, 4735, 4736, 4737, 4738, 
4739, 4740, 4741, 4742, 4743, 4744, 4745, 4746, 
4747, 4748, 4749, 4750, 4751, 4752, 4753, 4754, 
** ... 83 like lines cut
*nset, nset=BOTTOM
2219, 2220, 2221, 2222, 2223, 2224, 2225, 
2226, 2227, 2228, 2229, 2230, 2231, 2232, 2233, 
2234, 2235, 2236, 2237, 2238, 2239, 2240, 2241, 
2242, 2243, 2244, 2245, 2246, 2247, 2248, 2249, 
2250, 2251, 2252, 2253, 2254, 2255, 2256, 2257, 
2258, 2259, 2260, 2261, 2262, 2263, 2264, 2265, 
2266, 2267, 2268, 2269, 2270, 2271, 2272, 2273, 
2274, 2275, 2276, 2277, 2278, 2279, 2280, 2281, 
2282, 2283, 2284, 2285, 2286, 2287, 2288, 2289, 
2290, 2291, 2292, 2293, 2294, 2295, 2296, 2297, 
2298, 2299, 2300, 2301, 2302, 2303, 2304, 2305, 
2306, 2307, 2308, 2309, 2310, 1, 2, 5, 
6, 7, 8, 9, 10, 11, 12, 13, 
14, 15, 16, 17, 18, 19, 20, 21, 
22, 23, 24, 25, 26, 27, 187, 188, 
189, 190, 191, 192, 193, 194, 195, 196, 
197, 198, 199, 200, 201, 202, 203, 204, 
205, 206, 207, 208, 209, 210, 211, 212, 
213, 214, 215, 216, 217, 218, 219, 220, 
221, 222, 223, 224, 225, 226, 227, 228, 
** ... 13 like lines cut
*nset, nset=TOP
8193, 8194, 8195, 8196, 8197, 8198, 8199, 
8200, 8201, 8202, 8203, 8109, 8110, 8111, 8112, 
8113, 8114, 8115, 8116, 8117, 8118, 8119, 8120, 
8121, 8122, 8123, 8124, 8125, 8126, 8127, 8128, 
8129, 8130, 8131, 8132, 8133, 8134, 8135, 8136, 
8137, 8138, 8139, 8140, 8141, 8142, 8143, 8144, 
8145, 8146, 8147, 8148, 8149, 8150, 8151, 8152, 
8153, 8154, 8155, 8156, 8157, 8158, 8159, 8160, 
8161, 8162, 8163, 8164, 8165, 8166, 8167, 8168, 
8169, 8170, 8171, 8172, 8173, 8174, 8175, 8176, 
8177, 8178, 8179, 8180, 8181, 8182, 8183, 8184, 
8185, 8186, 8187, 8188, 8189, 8190, 8191, 8192, 
152, 153, 154, 155, 156, 157, 158, 159, 
160, 161, 162, 163, 164, 165, 166, 167, 
168, 169, 170, 171, 172, 173, 174, 175, 
176, 1898, 1899, 1901, 1902, 1903, 1904, 1905, 
1906, 1907, 1908, 1909, 1910, 1911, 1912, 1913, 
1914, 1915, 1916, 1917, 1918, 1919, 1920, 1921, 
1922, 1923, 1924, 1925, 1926, 1927, 1928, 1929, 
1930, 1931, 1932, 1933, 1934, 1935, 1936, 1937, 
** ... 13 like lines cut
*nset, nset=CYCLSYM1
3190, 3238, 3239, 3240, 8212, 8213, 8214, 
8215, 8245, 2049, 2050, 2051, 2611, 2612, 2642, 
2643, 2644, 2645, 4703, 4704, 4705, 4706, 4707, 
4708, 4709, 4710, 4711, 4712, 4713, 4714, 4715, 
4716, 4717, 4718, 4719, 4720, 4721, 4722, 4723, 
4724, 4725, 4726, 4727, 4728, 4729, 4730, 7656, 
7657, 7700, 7701, 7702, 12, 13, 14, 15, 
16, 17, 29, 30, 31, 32, 33, 34, 
55, 66, 67, 68, 69, 70, 71, 95, 
96, 97, 98, 99, 100, 126, 127, 128, 
129, 130, 131, 161, 162, 163, 164, 165, 
166, 177, 208, 219, 329, 340, 515, 516, 
517, 518, 519, 520, 521, 522, 523, 524, 
525, 526, 527, 721, 819, 820, 821, 822, 
823, 824, 825, 826, 827, 828, 829, 830, 
831, 832, 833, 834, 835, 836, 837, 838, 
839, 983, 1138, 1139, 1140, 1141, 1142, 1143, 
1144, 1145, 1146, 1147, 1148, 1149, 1150, 1151, 
1152, 1153, 1154, 1155, 1156, 1157, 1181, 1182, 
1183, 1184, 1185, 1186, 1187, 1188, 1189, 1190, 
** ... 20 like lines cut
*solid section, material=steel, elset=C3D4
*element, elset=C3D4,type=C3D4
20642, 9220, 2900, 9364, 514, 
20643, 2891, 9253, 265, 9206, 
20644, 2934, 9346, 9307, 2931, 
20645, 2438, 429, 428, 8861, 
20646, 2749, 2687, 9282, 610, 
20647, 316, 2290, 317, 9090, 
20648, 8761, 8760, 9291, 9078, 
20649, 8955, 465, 2380, 8969, 
20650, 9238, 2908, 9157, 8967, 
20651, 9310, 9220, 9364, 514, 
20652, 9030, 9031, 8887, 8772, 
20653, 8884, 8888, 8883, 8772, 
20654, 2296, 8803, 7, 8796, 
20655, 9091, 270, 2262, 9220, 
20656, 11, 9310, 2262, 9364, 
20657, 9020, 8814, 9038, 9021, 
20658, 2952, 2906, 2942, 2951, 
20659, 2749, 610, 9196, 611, 
20660, 2749, 8908, 9282, 2687, 
20661, 432, 9093, 431, 2362, 
** ... 47709 like lines cut

*elset, elset=OUTF1
64134, 27873, 25530, 27195, 25790, 20909, 26532, 
26531, 21673, 27391, 26054, 25508, 26906, 27718, 27972, 
27629, 24642, 26622, 25109, 20963, 27990, 27993, 25248, 
26826, 23877, 23915, 27500, 25174, 27963, 27900, 26319, 
27758, 23968, 22536, 27687, 27924, 25813, 23430, 24496, 
26816, 24118, 27389, 27991, 25706, 26318, 27537, 26519, 
24051, 26996, 23343, 23648, 24438, 21357, 22691, 21877, 
23610, 22890, 22857, 26214, 24348, 24961, 24565, 21502, 
63348, 67215, 64986, 67693, 61199, 67338, 66086, 67602, 
62708, 67433, 63439, 66977, 65962, 65745, 66779, 65947, 
64138, 61926, 64538, 67003, 62084, 66932, 65989, 61973, 
65929, 63760, 61576, 63947, 63945, 67109, 64569, 66626, 
62427, 66568, 62322, 66678, 65852, 65524, 62636, 63881, 
66958, 63178, 61782, 65907, 67520, 66998, 64270, 61999, 
66691, 64002, 63355, 61263, 65871, 61535, 64228, 61558, 
63907, 64156, 64891, 62202, 63979, 63009, 64192, 65386, 
66253, 67495, 62754, 61938, 65867, 62814, 65565, 62167, 
60879, 65379, 68169, 67946, 67331, 68268, 61894, 66168, 
62483, 65950, 65953, 68183, 66986, 63234, 64876, 67932, 
66981, 62272, 63827, 64794, 67761, 68288, 68158, 67641, 
** ... 91 like lines cut
*elset, elset=OUTF2
65149, 61499, 68285, 25132, 26018, 27975, 23798, 
22502, 24375, 26227, 24506, 27941, 24259, 24256, 25943, 
23804, 27387, 26638, 26855, 21278, 26820, 26829, 26003, 
27578, 26897, 21842, 21789, 24141, 26174, 27340, 20659, 
22387, 23600, 26681, 27258, 26798, 27719, 26234, 22533, 
22827, 21399, 27555, 26944, 27780, 25445, 27733, 24280, 
25741, 21392, 27321, 22872, 25506, 21133, 27832, 26405, 
20646, 24398, 25810, 27342, 26936, 21112, 21279, 26497, 
22115, 24897, 23039, 27142, 25080, 23769, 27023, 23447, 
27353, 25012, 25652, 22568, 24181, 23151, 22561, 26260, 
21414, 25150, 25878, 26875, 23615, 25481, 27131, 26303, 
21057, 27544, 27487, 25148, 26978, 24958, 22901, 21290, 
27071, 26283, 25856, 27550, 22784, 24579, 21086, 67808, 
60865, 63622, 64327, 67900, 66979, 65464, 62184, 67333, 
67475, 64808, 65542, 67775, 62447, 66621, 62263, 62228, 
68079, 65269, 65949, 68080, 66809, 65130, 67412, 65475, 
64657, 64322, 65799, 60854, 67376, 67970, 66929, 65668, 
66973, 61252, 67650, 65995, 64130, 61964, 66519, 62961, 
65948, 63929, 66965, 65854, 66911, 61245, 64620, 61196, 
66686, 63807, 65288, 66559, 62584, 65610, 63991, 62769, 
** ... 152 like lines cut
*elset, elset=OUTF3
66635, 63900, 66631, 26459, 26481, 25926, 24947, 
22266, 21435, 21340, 24436, 22556, 27129, 24757, 26428, 
24468, 21226, 25957, 26321, 22369, 27132, 26924, 27734, 
27938, 25755, 26282, 24363, 26976, 25566, 26737, 27897, 
27554, 27866, 24462, 24418, 27210, 21164, 27980, 25967, 
26863, 25208, 26977, 24231, 21449, 23466, 23930, 27894, 
27004, 27105, 25907, 26964, 21396, 26735, 24708, 22998, 
21704, 20688, 24756, 23802, 26642, 22302, 27627, 26262, 
27720, 24601, 23506, 27530, 24901, 23182, 26307, 26254, 
24463, 22977, 22252, 25380, 24043, 25579, 27545, 21832, 
23778, 67549, 64650, 64638, 67691, 65401, 63616, 66524, 
65248, 63703, 63055, 67002, 65265, 65958, 63089, 66938, 
62095, 65946, 63120, 66991, 66323, 64824, 67001, 64175, 
63163, 63334, 66482, 66967, 65666, 67047, 64587, 63886, 
67066, 65777, 65851, 61543, 64237, 67255, 63340, 64574, 
68178, 65057, 64507, 65516, 63171, 63002, 65511, 66144, 
62653, 62618, 67012, 67499, 63845, 65298, 66588, 61110, 
61517, 67834, 66694, 61164, 61322, 61566, 63811, 65537, 
61049, 61009, 62833, 67601, 66700, 62590, 66593, 61356, 
66674, 62158, 60946, 61132, 64146, 63825, 64007, 61393, 
** ... 135 like lines cut
*elset, elset=OUTF4
66908, 65094, 61174, 20969, 25002, 26501, 25921, 
21387, 22865, 27495, 27115, 21495, 27834, 22495, 27778, 
26570, 26447, 25885, 24103, 21706, 25701, 26790, 26883, 
27746, 27838, 25672, 24354, 23485, 22852, 26442, 23107, 
22065, 24882, 21274, 27994, 26743, 24641, 27022, 22232, 
23527, 24869, 21794, 22897, 27935, 25732, 25552, 22856, 
23863, 23250, 27782, 24874, 22395, 26197, 27072, 21705, 
27256, 20927, 26541, 20913, 25214, 20933, 21614, 24665, 
24731, 27461, 27493, 24946, 26203, 21114, 24439, 26223, 
26717, 26962, 26300, 24895, 24353, 24243, 21654, 26828, 
27017, 21457, 21713, 64999, 67335, 64088, 62082, 66109, 
60944, 66215, 62283, 61897, 63892, 62161, 61298, 62197, 
61139, 65237, 61458, 64755, 66753, 64239, 63034, 67392, 
65841, 65774, 61856, 62602, 62620, 65966, 62533, 65700, 
63943, 66867, 62656, 66714, 62771, 61534, 61456, 65808, 
64795, 62268, 62609, 62748, 63354, 65988, 66692, 67604, 
67361, 62128, 65828, 63922, 62031, 61335, 65317, 62632, 
66036, 62651, 65734, 65562, 62147, 65630, 63237, 62054, 
64878, 63014, 67432, 67096, 66949, 62020, 64970, 64760, 
61251, 68119, 61668, 68163, 65086, 65816, 68100, 68301, 
** ... 99 like lines cut
*elset, elset=CANALSF1
24751, 22875, 23147, 21241, 27672, 27027, 21881, 
60173, 57117, 54570, 59255, 58845, 59295, 57586, 57653, 
59071, 57649, 58149, 56016, 57588, 60998, 67231, 67928, 
63720, 67599, 65393, 65527, 63035, 67891, 66345, 67954, 
66682, 67837, 67755, 60929, 67742, 68237, 68090, 65325, 
62793, 67271, 63754, 61884, 61122, 62622, 61428, 66158, 
61114, 65730, 65591, 66755, 67939, 67341, 66653, 65069, 
63516, 66586, 67826, 67666, 61565, 67824, 62735, 63978, 
66280, 63225, 66947, 61649, 65357, 65674, 61971, 63957, 
65887, 67512, 64298, 68338, 66212, 66563, 63694, 62435, 
64123, 67870, 68026, 65432, 62659, 66854, 61684, 65625, 
63145, 66136, 61214, 62658, 64260, 63836, 62476, 64850, 
67661, 67530, 63850, 67384, 67957, 64282, 63704, 67664, 
67665, 60869, 66919, 63664, 67629, 66920, 63528, 62842, 
63846, 64054, 67720, 68001, 65048, 67120, 61386, 63455, 
64868, 63072, 66810, 64346, 63372, 66928, 68000, 64275, 
64351, 61797, 65917, 64671, 61372, 64285, 47253, 46217, 
40905, 42120, 53367, 43086, 49984, 42084, 39428, 38306, 
39442, 38963, 35716, 49237, 38908, 35527, 51866, 47097, 
42706, 47309, 42508, 42852, 36280, 48525, 42693, 43438, 
** ... 174 like lines cut
*elset, elset=CANALSF2
22698, 22309, 25064, 26618, 25201, 25216, 27669, 
22451, 22668, 24082, 22457, 58657, 56930, 57376, 55507, 
60300, 56192, 60286, 60117, 59388, 60439, 58820, 58254, 
58190, 57554, 60552, 57576, 56506, 54790, 54788, 55415, 
56963, 54732, 57708, 57716, 58652, 59560, 55583, 57629, 
60116, 59162, 60288, 57112, 57637, 54734, 59223, 58086, 
57098, 54682, 57414, 59424, 67144, 67874, 68318, 67875, 
67516, 67638, 66387, 62552, 62233, 68095, 65089, 64854, 
63809, 61968, 61976, 68085, 60967, 65119, 63084, 67657, 
67656, 63686, 61629, 63045, 64559, 67975, 68368, 68049, 
63073, 67988, 63937, 65297, 63314, 68043, 68261, 67976, 
68146, 64037, 63893, 68198, 61625, 66066, 61276, 60836, 
62159, 61619, 64073, 61439, 60832, 67915, 64667, 66399, 
67322, 64922, 67611, 67667, 65399, 67952, 67995, 67887, 
65425, 65915, 63860, 68294, 62601, 68153, 67440, 66999, 
66743, 68126, 63983, 63681, 64611, 63353, 67937, 60816, 
64141, 63939, 63994, 64105, 65355, 65397, 64449, 67789, 
68359, 67902, 63392, 66440, 67702, 67697, 65803, 63186, 
63500, 66751, 66469, 68370, 66279, 65507, 63605, 64681, 
65354, 62506, 61495, 64361, 62813, 64041, 61767, 61352, 
** ... 265 like lines cut
*elset, elset=CANALSF3
25096, 20785, 23962, 21362, 23512, 23528, 27676, 
22334, 25085, 26419, 20786, 27674, 58813, 60121, 58102, 
55065, 57749, 57416, 54739, 59571, 60301, 60284, 56435, 
56884, 58924, 57045, 57577, 57360, 59155, 60392, 59805, 
59136, 60025, 60396, 60397, 59164, 58861, 54525, 58446, 
59800, 56968, 58073, 57670, 54780, 59242, 57024, 54871, 
57687, 57692, 57102, 60171, 57046, 57085, 58860, 65090, 
65367, 65638, 67314, 63514, 62217, 63634, 67715, 63628, 
67979, 64021, 61249, 62989, 68167, 61775, 66416, 67987, 
65200, 61664, 63003, 61418, 68041, 67746, 65705, 67964, 
60863, 62715, 67962, 65140, 62752, 68367, 67744, 62742, 
65369, 66227, 66754, 63753, 61781, 67993, 62736, 66704, 
66695, 61368, 66642, 64862, 68157, 63968, 65039, 64561, 
61105, 61612, 62579, 67206, 68125, 64867, 68364, 65593, 
63357, 63523, 68118, 61501, 64127, 61257, 66713, 61659, 
61243, 63540, 65601, 65137, 66302, 63323, 67389, 66872, 
64101, 63327, 63194, 61091, 63226, 65047, 64139, 65492, 
68139, 66465, 66380, 61615, 67871, 62542, 63307, 64661, 
67794, 62437, 65806, 64658, 66786, 63321, 63777, 66838, 
63520, 65409, 64213, 61411, 63509, 65918, 63778, 64279, 
** ... 265 like lines cut
*elset, elset=CANALSF4
24018, 27671, 22517, 25603, 27724, 27723, 26569, 
21265, 57422, 57150, 60006, 56172, 54689, 58616, 56824, 
60516, 60453, 60515, 56857, 57671, 58867, 56888, 58869, 
55059, 58431, 55700, 59798, 55760, 58801, 59591, 57549, 
56627, 57075, 59346, 54978, 61910, 63623, 61085, 67955, 
61090, 61123, 65699, 64722, 65308, 68142, 61638, 67291, 
66400, 61282, 68089, 67237, 65957, 65059, 66702, 67838, 
63962, 65912, 66311, 63013, 61284, 62629, 68116, 66476, 
64632, 67825, 64654, 61527, 66684, 67938, 62443, 64077, 
61695, 67343, 66239, 61137, 63285, 64103, 67344, 65479, 
68011, 65493, 67845, 67904, 68024, 61793, 61190, 68009, 
66781, 62680, 64443, 66805, 66864, 64771, 67764, 68032, 
67472, 65169, 61791, 68284, 65993, 67682, 67884, 64908, 
67771, 67008, 64291, 61212, 65523, 65514, 63843, 65182, 
68120, 68361, 65451, 62406, 62698, 66832, 65740, 65462, 
65455, 67999, 68030, 65577, 63829, 64319, 64708, 65008, 
67305, 68342, 68346, 64429, 47372, 44764, 53804, 37543, 
42539, 47665, 37874, 52782, 35613, 43974, 36219, 35764, 
40990, 47122, 37237, 48060, 35047, 53824, 53371, 48257, 
48737, 48671, 43404, 50105, 47102, 39919, 50869, 51534, 
** ... 185 like lines cut
*elset, elset=INF1
22059, 27988, 22242, 22183, 24189, 20790, 24563, 
21570, 22650, 25309, 21056, 27601, 22405, 24836, 24834, 
26012, 26010, 61072, 61227, 67813, 66451, 63799, 61514, 
66507, 61065, 62423, 63339, 64113, 67083, 67086, 62025, 
66031, 65603, 68148, 66193, 67860, 66199, 62968, 60279, 
60777, 60776, 56247, 54849, 57751, 60599, 58595, 57663, 
57688, 56158, 55261, 58634, 57289, 55605, 59662, 60272, 
57952, 55774, 55936, 58858, 57732, 57890, 58060, 56286, 
57736, 55066, 57476, 57818, 54477, 55675, 54464, 57730, 
56630, 54428, 54476, 60184, 56709, 50079, 52812, 52338, 
52453, 51154, 47729, 54172, 52458, 44723, 50649, 45349, 
37850, 38904, 46295, 37549, 50615, 38933, 34644, 46225, 
48794, 50646, 40907, 52728, 43249, 45650, 41366, 54324, 
45478, 44390, 42985, 42809, 37449, 42820, 44970, 36047, 
47022, 41492, 38350, 48331, 36013, 53141, 49452, 49400, 
41994, 44523, 49870, 46472, 51911, 49583, 53250, 45626, 
51183, 47095, 53984, 34298, 47917, 40467, 51013, 49598, 
39957, 47835, 50850, 51311, 42012, 43547, 33359, 30454, 
32668, 30122, 32431, 31719, 28368, 28601, 30788, 30794, 
33416, 33795, 33941, 28556, 33641, 28941, 28027, 30545, 
** ... 20 like lines cut
*elset, elset=INF2
27809, 22501, 22715, 24001, 27808, 27786, 27360, 
25544, 23363, 24364, 26885, 24293, 22234, 23037, 22712, 
22325, 27947, 27420, 23209, 22982, 22040, 27417, 22758, 
25443, 22489, 25917, 22100, 24519, 21092, 21059, 27770, 
27624, 22616, 63447, 62038, 61470, 63457, 61972, 62076, 
61947, 66351, 65817, 63291, 67982, 66945, 67926, 67921, 
68022, 63211, 64434, 63973, 65801, 68128, 68218, 63594, 
61689, 62988, 67730, 67727, 67692, 68253, 67803, 62973, 
61303, 68040, 67453, 66183, 64274, 62917, 65655, 54425, 
58903, 56697, 58215, 54724, 57423, 55899, 59590, 55975, 
59621, 54987, 55816, 55592, 55474, 55817, 56940, 56385, 
59980, 54858, 57765, 58182, 60003, 57139, 57842, 59877, 
59697, 55754, 54475, 59205, 56792, 60423, 55590, 56291, 
58949, 59104, 60707, 58711, 57394, 54438, 60170, 58256, 
58042, 55663, 58331, 58973, 57820, 54418, 57332, 57645, 
58455, 55854, 58485, 55263, 51706, 40506, 46284, 44871, 
50072, 45653, 46879, 37358, 42137, 42781, 54188, 47728, 
53395, 53389, 52381, 52750, 37799, 34791, 37838, 37940, 
37685, 45950, 34463, 41182, 36956, 48437, 52341, 41180, 
44195, 50660, 36967, 44728, 36853, 41111, 46722, 35073, 
** ... 32 like lines cut
*elset, elset=INF3
25493, 22663, 25529, 22185, 24982, 25494, 27479, 
24308, 21918, 21664, 27517, 24135, 25229, 20862, 27830, 
20724, 22260, 22503, 22530, 25635, 24039, 20818, 21425, 
21428, 25408, 22781, 22354, 21622, 21216, 22089, 26138, 
26133, 27737, 21121, 20890, 25695, 24200, 25497, 68321, 
63650, 66912, 63496, 60861, 62333, 63294, 64932, 67124, 
61870, 67104, 65865, 67981, 64494, 66870, 62258, 68109, 
63591, 68173, 65418, 66172, 66143, 62987, 63590, 60948, 
61893, 63317, 63268, 60828, 63263, 61653, 60845, 61879, 
60901, 61109, 68036, 68260, 65548, 67052, 63454, 63806, 
58816, 59231, 60063, 60723, 59717, 55536, 54727, 59622, 
59546, 60162, 59620, 54396, 56315, 60264, 54552, 55241, 
56943, 56040, 56457, 58689, 57470, 54537, 60375, 55344, 
60118, 56268, 55346, 54869, 59235, 55986, 59343, 60371, 
60440, 59307, 56765, 56289, 55298, 56517, 54669, 59093, 
55640, 55954, 59099, 55885, 55609, 56713, 60609, 60351, 
57594, 57609, 55855, 55879, 55614, 59855, 55480, 56450, 
37974, 47546, 46283, 34227, 38366, 52188, 34404, 40764, 
46662, 52727, 38105, 40435, 51680, 45936, 54176, 45007, 
41344, 50681, 37493, 37028, 45036, 35441, 45959, 45958, 
** ... 38 like lines cut
*elset, elset=INF4
22182, 21663, 24807, 23217, 23523, 24323, 22867, 
24150, 21669, 21618, 25314, 25545, 22838, 26534, 20836, 
21405, 23767, 22572, 23774, 21462, 21464, 27804, 27803, 
21545, 25000, 21111, 22643, 21538, 22769, 21067, 27767, 
63712, 67741, 61301, 65809, 61027, 67843, 67816, 61842, 
67690, 61330, 62816, 63965, 67686, 64092, 60913, 61483, 
63772, 66032, 61005, 66728, 65309, 61289, 63554, 60650, 
58823, 55809, 55737, 58108, 60372, 60399, 58390, 55233, 
58547, 58225, 59827, 60366, 58432, 54873, 57420, 54462, 
57780, 55782, 56548, 59392, 55347, 55916, 60185, 56544, 
55813, 55857, 56035, 60463, 54868, 49642, 37489, 47425, 
40479, 35241, 43179, 40130, 38589, 42714, 48795, 40599, 
46227, 36920, 36173, 35158, 52346, 54079, 44866, 51166, 
51185, 48815, 41227, 37609, 34246, 48572, 41342, 46216, 
52343, 35322, 43588, 37367, 37641, 52322, 45927, 36972, 
48639, 45687, 45480, 43990, 36801, 50889, 49310, 39514, 
49932, 37127, 36131, 38905, 53083, 36006, 43542, 52436, 
50610, 38854, 45578, 39320, 53041, 53085, 34589, 37160, 
39861, 48098, 38488, 50747, 35985, 34584, 53183, 51409, 
50622, 44787, 36113, 49848, 36513, 50711, 45673, 30843, 
** ... 22 like lines cut
*elset, elset=TOPF1
61302, 61661, 61943, 63830, 63905, 60882, 64697, 
65788, 63791, 66873, 66386, 61022, 63645, 62196, 64311, 
61678, 62881, 63118, 63992, 66300, 61283, 63940, 64856, 
64585, 64297, 61746, 64207, 61088, 65055, 63895, 67327, 
65716, 61766, 64333, 67478, 65099, 65530, 63252, 61855, 
61307, 62013, 63689, 64832, 67456, 61876, 62008, 60911, 
65001, 67122, 65879, 61502, 66466, 62733, 62556, 62116, 
61608, 63737, 61415, 61692, 61537, 61929, 
*elset, elset=TOPF2
66288, 67828, 66413, 62981, 63765, 62950, 63530, 
66567, 64444, 64242, 67783, 64104, 62966, 61707, 66457, 
64187, 63556, 65194, 66067, 61197, 63671, 61264, 66530, 
67920, 64086, 65452, 61731, 61288, 61397, 66856, 66274, 
62130, 65704, 64262, 65862, 67950, 66169, 61290, 60919, 
66698, 64236, 63098, 63491, 66503, 67864, 67818, 66763, 
62324, 63606, 62396, 65217, 63673, 68323, 65112, 66785, 
61882, 68027, 67125, 66087, 62627, 61412, 63005, 62877, 
67123, 63131, 64914, 63337, 60888, 63125, 63206, 63217, 
67868, 63693, 63654, 68344, 66303, 63324, 60866, 65342, 
62643, 63309, 62329, 62393, 63513, 66426, 61334, 67132, 
63104, 65216, 61718, 63787, 66853, 65210, 63283, 61308, 
63802, 64031, 62465, 66830, 65440, 66304, 66496, 66802, 
61244, 63280, 62611, 
*elset, elset=TOPF3
63074, 63877, 63729, 61216, 66063, 66589, 66564, 
63822, 65732, 64098, 62208, 67829, 61384, 66807, 62407, 
64669, 64367, 63676, 64363, 62703, 67336, 65128, 61932, 
62693, 62537, 65129, 61848, 65323, 61589, 67830, 62034, 
66546, 61318, 64703, 62052, 63502, 61698, 63660, 62979, 
63001, 65197, 63028, 65064, 60809, 63270, 61254, 64170, 
66971, 66019, 63844, 66884, 61115, 66354, 65214, 66806, 
65111, 61722, 66225, 64483, 63658, 64533, 65233, 66481, 
63126, 66501, 63999, 64676, 63249, 67211, 66322, 61099, 
66718, 66308, 65244, 64545, 63303, 64119, 64486, 61191, 
63551, 66161, 63388, 61496, 63598, 61111, 63871, 65110, 
66276, 63308, 61144, 64514, 65429, 65517, 61233, 63069, 
65184, 62891, 66762, 63662, 64785, 63341, 62674, 60834, 
66542, 61759, 67583, 63512, 61147, 62878, 66437, 65588, 
*elset, elset=TOPF4
61130, 63646, 64789, 63848, 61364, 66435, 61886, 
62520, 64261, 64707, 66835, 65232, 64418, 62588, 66726, 
62011, 63705, 66513, 61823, 61602, 66536, 64627, 64688, 
64068, 63574, 67334, 61182, 64036, 66709, 60898, 64066, 
62909, 63607, 60958, 65230, 66059, 64046, 62323, 61673, 
60988, 62071, 62123, 62289, 65787, 61631, 62943, 63805, 
60989, 64643, 61007, 66185, 64157, 61149, 61086, 64406, 
61849, 61464, 61831, 66738, 60821, 61969, 61360, 63780, 
63085, 65702, 64715, 63185, 67156, 62143, 62824, 61810, 
61690, 66722, 64653, 63735, 66422, 63666, 66453, 66548, 
62931, 62756, 66711, 65392, 
*elset, elset=BOTTOMF1
22509, 24300, 22163, 25431, 27173, 20715, 21504, 
24531, 27052, 22805, 26430, 22422, 26455, 22541, 25613, 
25470, 24387, 26279, 23202, 24608, 26641, 27061, 24806, 
21263, 23732, 27304, 25059, 25061, 25845, 22213, 23238, 
21658, 23555, 21708, 23177, 23816, 25983, 22078, 25863, 
20647, 27140, 20946, 25811, 21963, 24663, 25819, 21610, 
24501, 22217, 26076, 22463, 23538, 27090, 23342, 24502, 
25515, 25343, 20991, 24159, 25904, 27489, 20994, 23683, 
26483, 25154, 23800, 27152, 23565, 24704, 23270, 25734, 
22135, 24410, 25049, 23775, 21894, 21016, 27610, 26463, 
25905, 25155, 22406, 21699, 24386, 21318, 25879, 
*elset, elset=BOTTOMF2
25791, 25782, 27197, 21467, 23618, 26849, 26907, 
22625, 25800, 21535, 24570, 24971, 25449, 24744, 21904, 
25708, 24541, 25828, 25781, 25843, 25069, 22041, 22230, 
25970, 25854, 27795, 22108, 21372, 25422, 22124, 27810, 
27099, 24476, 22195, 27187, 24727, 27421, 27826, 22162, 
21839, 25050, 22679, 24617, 21182, 23108, 21688, 22179, 
22508, 27659, 25764, 24781, 22740, 24648, 23797, 24478, 
25861, 21770, 26170, 23965, 22098, 20845, 27913, 25178, 
25185, 23222, 24940, 23282, 27138, 26910, 24250, 22336, 
27350, 27768, 21835, 25044, 22035, 21168, 21108, 23136, 
23906, 25972, 24745, 22264, 25025, 27358, 24208, 24530, 
20849, 26114, 27754, 27625, 27228, 21971, 22611, 26070, 
27176, 21925, 26636, 24413, 22031, 27229, 24381, 24076, 
27390, 21873, 
*elset, elset=BOTTOMF3
26310, 24508, 23139, 21949, 22240, 21946, 22438, 
21640, 27058, 26688, 26908, 21165, 26461, 27069, 21521, 
23672, 24675, 21653, 24040, 26173, 27089, 21970, 24029, 
20698, 27097, 25084, 22054, 27282, 22516, 24265, 24691, 
24662, 27347, 24535, 25145, 27365, 25923, 25225, 26850, 
24393, 23097, 25548, 25714, 22858, 22254, 22253, 27522, 
24983, 25806, 24147, 21166, 27281, 23319, 25066, 22058, 
27447, 27287, 25733, 22079, 27656, 23322, 27243, 27060, 
24703, 27059, 25925, 22104, 25932, 23998, 23420, 25727, 
23119, 27376, 21995, 25971, 24102, 21891, 21193, 27216, 
26183, 21282, 23163, 25839, 21119, 26209, 26854, 24507, 
21985, 25914, 24730, 23013, 21685, 24551, 27102, 25252, 
25479, 24487, 25471, 24548, 24588, 24196, 23731, 27241, 
23793, 21916, 21906, 27088, 
*elset, elset=BOTTOMF4
21623, 25329, 21913, 27192, 21099, 21641, 24960, 
20886, 24850, 21973, 25805, 21611, 27661, 22801, 23134, 
25006, 24179, 25604, 26948, 24621, 21496, 21189, 22764, 
24637, 27119, 25748, 24194, 27114, 21585, 22605, 20771, 
23334, 25356, 27410, 22106, 21637, 20944, 25125, 21135, 
25937, 22767, 21801, 24391, 25040, 24609, 22080, 25836, 
23288, 26199, 25104, 22537, 21001, 21167, 24555, 27107, 
25456, 24184, 27612, 24464, 24787, 
*surface, type=element, name=sOUT
OUTF1, S1
OUTF2, S2
OUTF3, S3
OUTF4, S4
*surface, type=element, name=sCANALS
CANALSF1, S1
CANALSF2, S2
CANALSF3, S3
CANALSF4, S4
*surface, type=element, name=sIN
INF1, S1
INF2, S2
INF3, S3
INF4, S4
*surface, type=element, name=sTOP
TOPF1, S1
TOPF2, S2
TOPF3, S3
TOPF4, S4
*surface, type=element, name=sBOTTOM
BOTTOMF1, S1
BOTTOMF2, S2
BOTTOMF3, S3
BOTTOMF4, S4

*material, name=steel
*elastic
209000.0, 0.3
*density
7.85e-09
*step
*frequency
12
*nodefile
u
*elfile, output=3D
s, e
*endstep
