*node, nset=nall
1, 1, -2.44929e-16, 4
2, 1, -2.44929e-16, 0
3, 0.9, -2.20436e-16, 4
4, 0.9, -2.20436e-16, 0
5, 0.980785, 0.19509, 4
6, 0.92388, 0.382683, 4
7, 0.83147, 0.55557, 4
8, 0.707107, 0.707107, 4
9, 0.55557, 0.83147, 4
10, 0.382683, 0.92388, 4
11, 0.19509, 0.980785, 4
12, 6.12323e-17, 1, 4
13, -0.19509, 0.980785, 4
14, -0.382683, 0.92388, 4
15, -0.55557, 0.83147, 4
16, -0.707107, 0.707107, 4
17, -0.83147, 0.55557, 4
18, -0.92388, 0.382683, 4
19, -0.980785, 0.19509, 4
20, -1, -7.65714e-16, 4
** ... 2042 like lines cut
*nset, nset=BOTTOM
1042, 1043, 1044, 1045, 1046, 1047, 1048, 
1049, 1050, 1051, 1052, 1053, 1054, 1055, 1056, 
1057, 1058, 1059, 2, 4, 55, 56, 57, 
58, 59, 60, 61, 62, 63, 64, 65, 
66, 67, 68, 69, 70, 71, 72, 73, 
74, 75, 76, 77, 78, 79, 80, 81, 
82, 83, 84, 85, 114, 115, 116, 117, 
118, 119, 120, 121, 122, 123, 124, 125, 
126, 127, 128, 129, 130, 131, 132, 133, 
134, 135, 136, 137, 138, 139, 140, 141, 
*solid section, material=steel, elset=C3D4
*element, elset=C3D4,type=C3D4
4089, 1753, 856, 868, 1768, 
4090, 857, 827, 1727, 1756, 
4091, 621, 622, 620, 1503, 
4092, 1339, 399, 1336, 47, 
4093, 348, 874, 1774, 1775, 
4094, 1001, 1939, 999, 1938, 
4095, 860, 1241, 346, 859, 
4096, 1440, 536, 258, 537, 
4097, 1759, 1241, 859, 1757, 
4098, 1484, 2029, 1170, 592, 
4099, 1500, 1502, 1174, 275, 
4100, 876, 872, 1245, 894, 
4101, 1857, 937, 1267, 2034, 
4102, 1759, 1241, 1760, 859, 
4103, 994, 1946, 980, 184, 
4104, 593, 1822, 1779, 1795, 
4105, 187, 1309, 411, 1310, 
4106, 346, 1766, 866, 1768, 
4107, 530, 1146, 1388, 1434, 
4108, 1787, 893, 352, 1786, 
** ... 6199 like lines cut

*elset, elset=PRESSUREF1
9939, 9810, 7624, 9274, 6079, 6348, 4673, 
7690, 4699, 6726, 5712, 6706, 4885, 6412, 6213, 
4434, 7849, 7044, 5449, 7664, 7782, 9134, 4194, 
7536, 8149, 6440, 8919, 5577, 7714, 4924, 4833, 
4664, 5944, 7867, 7614, 4201, 9444, 6464, 6465, 
6551, 7121, 8955, 4737, 4508, 5313, 4739, 8194, 
8006, 8165, 6810, 5943, 4756, 7098, 8953, 7873, 
5002, 8943, 6135, 7238, 10044, 9806, 6886, 5968, 
4374, 9478, 4381, 9464, 7258, 7749, 5386, 6893, 
8756, 8311, 9986, 10259, 10301, 4487, 4810, 5359, 
4804, 7097, 5955, 6381, 9035, 8367, 5679, 5624, 
6137, 8346, 8364, 9051, 8321, 4139, 8666, 6939, 
7075, 8613, 6956, 9522, 8531, 7794, 5347, 4415, 
6964, 6615, 6976, 6812, 7037, 8757, 9075, 7485, 
6977, 5608, 9856, 7043, 7799, 6790, 6504, 5807, 
9523, 8941, 8568, 5464, 6041, 5592, 10201, 10127, 
9811, 6673, 5486, 7816, 4327, 4099, 8550, 6268, 
5847, 6157, 4764, 5839, 8053, 4789, 9209, 6986, 
4872, 6767, 6948, 5874, 9038, 5610, 9224, 9221, 
5260, 8132, 7984, 5969, 8818, 4968, 4187, 6215, 
** ... 36 like lines cut
*elset, elset=PRESSUREF2
6691, 6966, 5563, 7451, 4292, 4300, 4309, 
7583, 4276, 6439, 5172, 8596, 7356, 8240, 5241, 
7645, 6730, 8059, 4401, 7568, 4346, 6416, 6526, 
7740, 6957, 8244, 5600, 7143, 4647, 7695, 5599, 
4915, 7678, 4314, 7675, 6071, 5967, 8488, 4175, 
5607, 9863, 7884, 8141, 5454, 8104, 4495, 4507, 
7719, 5446, 5349, 8193, 5979, 5417, 5636, 4429, 
5649, 5677, 4830, 9637, 10140, 10252, 7736, 9077, 
8320, 9768, 8154, 4180, 5683, 4857, 8318, 7912, 
9885, 10052, 10042, 9850, 6744, 5704, 4537, 7886, 
8272, 8313, 8252, 5965, 8917, 6870, 7927, 9471, 
9501, 8449, 8348, 5983, 5401, 5053, 6567, 5113, 
5350, 5362, 5742, 6271, 7939, 9756, 9472, 4592, 
6379, 9782, 6477, 6451, 4390, 4466, 5758, 4477, 
6555, 5774, 5443, 6623, 7145, 5919, 6618, 8467, 
8861, 7977, 8465, 8498, 7983, 4731, 5764, 8962, 
8446, 8845, 7801, 4659, 7986, 4635, 8487, 7002, 
7107, 6235, 7156, 7150, 9793, 10020, 10202, 8988, 
7229, 7572, 8536, 5298, 7660, 9538, 5104, 9431, 
9348, 5817, 4706, 5041, 8585, 8599, 7172, 6903, 
** ... 42 like lines cut
*elset, elset=PRESSUREF3
9981, 10134, 6369, 8236, 4945, 9744, 8230, 
4684, 6656, 8170, 8019, 8855, 9405, 7826, 6325, 
7040, 4880, 7490, 5314, 5606, 4875, 7855, 5857, 
8076, 7864, 6218, 4939, 6084, 4911, 7804, 8022, 
4962, 4959, 4387, 4411, 8241, 8228, 5753, 8876, 
4417, 7827, 4818, 7809, 5578, 7177, 7832, 4874, 
7962, 4841, 9453, 4489, 8807, 8092, 8198, 4501, 
8365, 4439, 7728, 7756, 5861, 9022, 9797, 5383, 
8188, 5737, 7907, 8036, 6559, 9642, 6199, 9681, 
8035, 5684, 6550, 9954, 9955, 5293, 9851, 9497, 
6028, 5331, 8204, 5222, 9646, 9470, 5980, 5813, 
5389, 5836, 9484, 5351, 8804, 8281, 5726, 8331, 
8963, 6542, 5281, 8267, 8234, 4813, 5739, 4807, 
4107, 4716, 7734, 8121, 4433, 6383, 6165, 9515, 
6782, 8444, 6008, 4903, 6563, 7062, 8353, 5734, 
7949, 6818, 9535, 5798, 5355, 9787, 6431, 9530, 
4446, 8986, 8413, 7780, 8412, 7941, 9525, 7765, 
10107, 7157, 9540, 5208, 8229, 8517, 7227, 6680, 
7557, 9741, 8557, 6073, 6426, 8556, 7842, 9558, 
8017, 5515, 8065, 4944, 4748, 4336, 9192, 8513, 
** ... 41 like lines cut
*elset, elset=PRESSUREF4
4724, 8562, 5128, 9393, 8527, 6769, 8011, 
4967, 6358, 8173, 8890, 6722, 9272, 6410, 7777, 
8250, 8877, 6967, 8247, 9577, 8058, 7829, 5060, 
8072, 6735, 5457, 6777, 6713, 8133, 7602, 5770, 
5469, 9751, 8249, 8881, 7880, 7973, 7835, 7063, 
4184, 8190, 8352, 7123, 5140, 8947, 5420, 5557, 
5556, 7997, 6794, 8292, 8153, 5103, 6457, 6003, 
9468, 5775, 4369, 5262, 4931, 10065, 10224, 9945, 
6916, 5391, 4823, 6872, 7105, 9499, 6994, 10181, 
5332, 9921, 6561, 4961, 8330, 6621, 8215, 5719, 
4773, 6915, 6573, 6910, 9043, 7846, 7911, 7544, 
4815, 4824, 4811, 9976, 10192, 8922, 7087, 7866, 
7110, 8951, 5966, 9763, 7132, 9450, 7841, 8737, 
5479, 7969, 5477, 6584, 6961, 8656, 7787, 8593, 
6633, 9108, 6614, 5307, 6820, 6591, 9415, 9420, 
8459, 5503, 8805, 6897, 6990, 7522, 5118, 5455, 
5811, 9539, 5803, 6640, 8870, 4558, 8510, 6666, 
5825, 5814, 9537, 7721, 4617, 4310, 9091, 4615, 
7853, 5768, 8773, 7429, 8580, 5838, 9126, 6062, 
8970, 7161, 5916, 6679, 9140, 9748, 9258, 6049, 
** ... 41 like lines cut
*surface, type=element, name=sPRESSURE
PRESSUREF1, S1
PRESSUREF2, S2
PRESSUREF3, S3
PRESSUREF4, S4

*material, name=steel
*elastic
209000.0, 0.3
*density
7.85e-09
*step
*frequency
12
*nodefile
u
*elfile, output=3D
s, e
*endstep
