*node, nset=nall
1, 0.7775, -1.34667, 1.65786e-14
2, 0.7685, -1.33108, 6.31176e-15
3, 0.7685, -1.33108, 0.06
4, 0.7775, -1.34667, 0.06
5, 0.709385, -1.36521, 9.39197e-15
6, 0.709385, -1.50173, 1.7186e-14
7, 0.591154, -1.56999, 6.59595e-15
8, 0.472923, -1.50173, 1.12043e-14
9, 0.354692, -1.56999, 1.5064e-14
10, 0.236462, -1.50173, 1.70381e-14
11, 0.118231, -1.56999, 3.09035e-15
12, 1.21838e-14, -1.50173, 1.10875e-14
13, 1.77674e-14, -1.5504, 6.50404e-15
14, 9.9408e-15, -1.6204, 1.31151e-14
15, 8.04762e-15, -1.637, 3.71067e-15
16, 1.66732e-14, -1.707, 1.4409e-14
17, 1.18377e-14, -1.7425, 5.28779e-15
18, 0.831988, -1.53105, 7.34651e-15
19, 0.811988, -1.4964, 8.70657e-15
20, 0.850959, -1.4739, 1.67024e-14
** ... 12066 like lines cut
*solid section, material=steel, elset=C3D4
*element, elset=C3D4,type=C3D4
1, 9220, 2900, 9364, 514, 
2, 2891, 9253, 265, 9206, 
3, 2934, 9346, 9307, 2931, 
4, 2438, 429, 428, 8861, 
5, 2749, 2687, 9282, 610, 
6, 316, 2290, 317, 9090, 
7, 8761, 8760, 9291, 9078, 
8, 8955, 465, 2380, 8969, 
9, 9238, 2908, 9157, 8967, 
10, 9310, 9220, 9364, 514, 
11, 9030, 9031, 8887, 8772, 
12, 8884, 8888, 8883, 8772, 
13, 2296, 8803, 7, 8796, 
14, 9091, 270, 2262, 9220, 
15, 11, 9310, 2262, 9364, 
16, 9020, 8814, 9038, 9021, 
17, 2952, 2906, 2942, 2951, 
18, 2749, 610, 9196, 611, 
19, 2749, 8908, 9282, 2687, 
20, 432, 9093, 431, 2362, 
** ... 47709 like lines cut
*material, name=steel
*elastic
209000.0, 0.3
*density
7.85e-09
*step
*frequency
12
*nodefile
u
*elfile, output=3D
s, e
*endstep
